FoamFile
{
	version	2.0;
	format	ascii;
	class	dictionary;
	location	"system";
	object	blockMeshDict;
}
vertices	(
	(0.0 0.5 0.0)
	(-24.0 0.5 0.0)
	(1.0 0.5 25.0)
	(38.5 0.5 25.0)
	(38.5 0.5 0.026603302)
	(1.0 0.5 0.00126)
	(1.0 0.5 -25.0)
	(38.5 0.5 -25.0)
	(38.5 0.5 -0.026603302)
	(1.0 0.5 -0.00126)
	(0.0 -0.5 0.0)
	(-24.0 -0.5 0.0)
	(1.0 -0.5 25.0)
	(38.5 -0.5 25.0)
	(38.5 -0.5 0.026603302)
	(1.0 -0.5 0.00126)
	(1.0 -0.5 -25.0)
	(38.5 -0.5 -25.0)
	(38.5 -0.5 -0.026603302)
	(1.0 -0.5 -0.00126)
);
blocks	(
	hex	(0 1 11 10 5 2 12 15) (99 1 236) edgeGrading (11388.96 11388.96 11388.96 11388.96 1.0 1.0 1.0 1.0 4.0137596 0.003316954 0.003316954 4.0137596)
	hex	(10 11 1 0 19 16 6 9) (99 1 236) edgeGrading (11388.96 11388.96 11388.96 11388.96 1.0 1.0 1.0 1.0 4.0137596 0.003316954 0.003316954 4.0137596)
	hex	(5 2 12 15 4 3 13 14) (99 1 65) edgeGrading (11388.96 11388.96 271.5765 271.5765 1.0 1.0 1.0 1.0 445.79218 131.61475 131.61475 445.79218)
	hex	(19 16 6 9 18 17 7 8) (99 1 65) edgeGrading (11388.96 11388.96 271.5765 271.5765 1.0 1.0 1.0 1.0 445.79218 131.61475 131.61475 445.79218)
	hex	(9 5 15 19 8 4 14 18) (9 1 65) simpleGrading (1.0 1.0 445.79218)
);
edges	(
	arc	1 2 (-16.67767 0.5 17.67767)
	arc	1 6 (-16.67767 0.5 -17.67767)
	BSpline	0 5 (
		(3.7606806e-6 0.5 3.450489e-4)
		(7.191673e-5 0.5 0.0015074221)
		(5.839e-4 0.5 0.0042603)
		(0.0023342 0.5 0.0084289)
		(0.0052468 0.5 0.0125011)
		(0.0093149 0.5 0.0164706)
		(0.0145291 0.5 0.02033)
		(0.0208771 0.5 0.0240706)
		(0.0283441 0.5 0.0276827)
		(0.0369127 0.5 0.0311559)
		(0.0465628 0.5 0.0344792)
		(0.057272 0.5 0.0376414)
		(0.0690152 0.5 0.040631)
		(0.0817649 0.5 0.0434371)
		(0.0954915 0.5 0.0460489)
		(0.1101628 0.5 0.0484567)
		(0.1257446 0.5 0.0506513)
		(0.1422005 0.5 0.0526251)
		(0.1594921 0.5 0.0543715)
		(0.1775789 0.5 0.0558856)
		(0.1964187 0.5 0.057164)
		(0.2159676 0.5 0.0582048)
		(0.2361799 0.5 0.0590081)
		(0.2570083 0.5 0.0595755)
		(0.2784042 0.5 0.0599102)
		(0.3003177 0.5 0.0600172)
		(0.3226976 0.5 0.0599028)
		(0.3454915 0.5 0.0595747)
		(0.3686463 0.5 0.0590419)
		(0.3921079 0.5 0.0583145)
		(0.4158215 0.5 0.0574033)
		(0.4397317 0.5 0.05632)
		(0.4637826 0.5 0.0550769)
		(0.4879181 0.5 0.0536866)
		(0.5120819 0.5 0.052162)
		(0.5362174 0.5 0.0505161)
		(0.5602683 0.5 0.0487619)
		(0.5841786 0.5 0.0469124)
		(0.6078921 0.5 0.0449802)
		(0.6313537 0.5 0.0429778)
		(0.6545085 0.5 0.0409174)
		(0.6773025 0.5 0.0388109)
		(0.6996823 0.5 0.03667)
		(0.7215958 0.5 0.0345058)
		(0.7429917 0.5 0.0323294)
		(0.7638202 0.5 0.0301515)
		(0.7840324 0.5 0.0279828)
		(0.8035813 0.5 0.0258337)
		(0.8224211 0.5 0.0237142)
		(0.8405079 0.5 0.0216347)
		(0.8577995 0.5 0.0196051)
		(0.8742554 0.5 0.0176353)
		(0.8898372 0.5 0.0157351)
		(0.9045085 0.5 0.0139143)
		(0.9182351 0.5 0.0121823)
		(0.9309849 0.5 0.0105485)
		(0.942728 0.5 0.0090217)
		(0.9534372 0.5 0.0076108)
		(0.9630873 0.5 0.0063238)
		(0.9716559 0.5 0.0051685)
		(0.9791229 0.5 0.0041519)
		(0.9854709 0.5 0.0032804)
		(0.990685 0.5 0.0025595)
		(0.9947532 0.5 0.0019938)
		(0.9976658 0.5 0.001587)
		(0.9994161 0.5 0.0013419)
	)
	BSpline	0 9 (
		(3.7606806e-6 0.5 -3.450489e-4)
		(7.191673e-5 0.5 -0.0015074221)
		(5.839e-4 0.5 -0.0042603)
		(0.0023342 0.5 -0.0084289)
		(0.0052468 0.5 -0.0125011)
		(0.0093149 0.5 -0.0164706)
		(0.0145291 0.5 -0.02033)
		(0.0208771 0.5 -0.0240706)
		(0.0283441 0.5 -0.0276827)
		(0.0369127 0.5 -0.0311559)
		(0.0465628 0.5 -0.0344792)
		(0.057272 0.5 -0.0376414)
		(0.0690152 0.5 -0.040631)
		(0.0817649 0.5 -0.0434371)
		(0.0954915 0.5 -0.0460489)
		(0.1101628 0.5 -0.0484567)
		(0.1257446 0.5 -0.0506513)
		(0.1422005 0.5 -0.0526251)
		(0.1594921 0.5 -0.0543715)
		(0.1775789 0.5 -0.0558856)
		(0.1964187 0.5 -0.057164)
		(0.2159676 0.5 -0.0582048)
		(0.2361799 0.5 -0.0590081)
		(0.2570083 0.5 -0.0595755)
		(0.2784042 0.5 -0.0599102)
		(0.3003177 0.5 -0.0600172)
		(0.3226976 0.5 -0.0599028)
		(0.3454915 0.5 -0.0595747)
		(0.3686463 0.5 -0.0590419)
		(0.3921079 0.5 -0.0583145)
		(0.4158215 0.5 -0.0574033)
		(0.4397317 0.5 -0.05632)
		(0.4637826 0.5 -0.0550769)
		(0.4879181 0.5 -0.0536866)
		(0.5120819 0.5 -0.052162)
		(0.5362174 0.5 -0.0505161)
		(0.5602683 0.5 -0.0487619)
		(0.5841786 0.5 -0.0469124)
		(0.6078921 0.5 -0.0449802)
		(0.6313537 0.5 -0.0429778)
		(0.6545085 0.5 -0.0409174)
		(0.6773025 0.5 -0.0388109)
		(0.6996823 0.5 -0.03667)
		(0.7215958 0.5 -0.0345058)
		(0.7429917 0.5 -0.0323294)
		(0.7638202 0.5 -0.0301515)
		(0.7840324 0.5 -0.0279828)
		(0.8035813 0.5 -0.0258337)
		(0.8224211 0.5 -0.0237142)
		(0.8405079 0.5 -0.0216347)
		(0.8577995 0.5 -0.0196051)
		(0.8742554 0.5 -0.0176353)
		(0.8898372 0.5 -0.0157351)
		(0.9045085 0.5 -0.0139143)
		(0.9182351 0.5 -0.0121823)
		(0.9309849 0.5 -0.0105485)
		(0.942728 0.5 -0.0090217)
		(0.9534372 0.5 -0.0076108)
		(0.9630873 0.5 -0.0063238)
		(0.9716559 0.5 -0.0051685)
		(0.9791229 0.5 -0.0041519)
		(0.9854709 0.5 -0.0032804)
		(0.990685 0.5 -0.0025595)
		(0.9947532 0.5 -0.0019938)
		(0.9976658 0.5 -0.001587)
		(0.9994161 0.5 -0.0013419)
	)
	arc	5 2 (2.4142137 0.5 8.838835)
	arc	9 6 (2.4142137 0.5 -8.838835)
	arc	11 12 (-16.67767 -0.5 17.67767)
	arc	11 16 (-16.67767 -0.5 -17.67767)
	BSpline	10 15 (
		(3.7606806e-6 -0.5 3.450489e-4)
		(7.191673e-5 -0.5 0.0015074221)
		(5.839e-4 -0.5 0.0042603)
		(0.0023342 -0.5 0.0084289)
		(0.0052468 -0.5 0.0125011)
		(0.0093149 -0.5 0.0164706)
		(0.0145291 -0.5 0.02033)
		(0.0208771 -0.5 0.0240706)
		(0.0283441 -0.5 0.0276827)
		(0.0369127 -0.5 0.0311559)
		(0.0465628 -0.5 0.0344792)
		(0.057272 -0.5 0.0376414)
		(0.0690152 -0.5 0.040631)
		(0.0817649 -0.5 0.0434371)
		(0.0954915 -0.5 0.0460489)
		(0.1101628 -0.5 0.0484567)
		(0.1257446 -0.5 0.0506513)
		(0.1422005 -0.5 0.0526251)
		(0.1594921 -0.5 0.0543715)
		(0.1775789 -0.5 0.0558856)
		(0.1964187 -0.5 0.057164)
		(0.2159676 -0.5 0.0582048)
		(0.2361799 -0.5 0.0590081)
		(0.2570083 -0.5 0.0595755)
		(0.2784042 -0.5 0.0599102)
		(0.3003177 -0.5 0.0600172)
		(0.3226976 -0.5 0.0599028)
		(0.3454915 -0.5 0.0595747)
		(0.3686463 -0.5 0.0590419)
		(0.3921079 -0.5 0.0583145)
		(0.4158215 -0.5 0.0574033)
		(0.4397317 -0.5 0.05632)
		(0.4637826 -0.5 0.0550769)
		(0.4879181 -0.5 0.0536866)
		(0.5120819 -0.5 0.052162)
		(0.5362174 -0.5 0.0505161)
		(0.5602683 -0.5 0.0487619)
		(0.5841786 -0.5 0.0469124)
		(0.6078921 -0.5 0.0449802)
		(0.6313537 -0.5 0.0429778)
		(0.6545085 -0.5 0.0409174)
		(0.6773025 -0.5 0.0388109)
		(0.6996823 -0.5 0.03667)
		(0.7215958 -0.5 0.0345058)
		(0.7429917 -0.5 0.0323294)
		(0.7638202 -0.5 0.0301515)
		(0.7840324 -0.5 0.0279828)
		(0.8035813 -0.5 0.0258337)
		(0.8224211 -0.5 0.0237142)
		(0.8405079 -0.5 0.0216347)
		(0.8577995 -0.5 0.0196051)
		(0.8742554 -0.5 0.0176353)
		(0.8898372 -0.5 0.0157351)
		(0.9045085 -0.5 0.0139143)
		(0.9182351 -0.5 0.0121823)
		(0.9309849 -0.5 0.0105485)
		(0.942728 -0.5 0.0090217)
		(0.9534372 -0.5 0.0076108)
		(0.9630873 -0.5 0.0063238)
		(0.9716559 -0.5 0.0051685)
		(0.9791229 -0.5 0.0041519)
		(0.9854709 -0.5 0.0032804)
		(0.990685 -0.5 0.0025595)
		(0.9947532 -0.5 0.0019938)
		(0.9976658 -0.5 0.001587)
		(0.9994161 -0.5 0.0013419)
	)
	BSpline	10 19 (
		(3.7606806e-6 -0.5 -3.450489e-4)
		(7.191673e-5 -0.5 -0.0015074221)
		(5.839e-4 -0.5 -0.0042603)
		(0.0023342 -0.5 -0.0084289)
		(0.0052468 -0.5 -0.0125011)
		(0.0093149 -0.5 -0.0164706)
		(0.0145291 -0.5 -0.02033)
		(0.0208771 -0.5 -0.0240706)
		(0.0283441 -0.5 -0.0276827)
		(0.0369127 -0.5 -0.0311559)
		(0.0465628 -0.5 -0.0344792)
		(0.057272 -0.5 -0.0376414)
		(0.0690152 -0.5 -0.040631)
		(0.0817649 -0.5 -0.0434371)
		(0.0954915 -0.5 -0.0460489)
		(0.1101628 -0.5 -0.0484567)
		(0.1257446 -0.5 -0.0506513)
		(0.1422005 -0.5 -0.0526251)
		(0.1594921 -0.5 -0.0543715)
		(0.1775789 -0.5 -0.0558856)
		(0.1964187 -0.5 -0.057164)
		(0.2159676 -0.5 -0.0582048)
		(0.2361799 -0.5 -0.0590081)
		(0.2570083 -0.5 -0.0595755)
		(0.2784042 -0.5 -0.0599102)
		(0.3003177 -0.5 -0.0600172)
		(0.3226976 -0.5 -0.0599028)
		(0.3454915 -0.5 -0.0595747)
		(0.3686463 -0.5 -0.0590419)
		(0.3921079 -0.5 -0.0583145)
		(0.4158215 -0.5 -0.0574033)
		(0.4397317 -0.5 -0.05632)
		(0.4637826 -0.5 -0.0550769)
		(0.4879181 -0.5 -0.0536866)
		(0.5120819 -0.5 -0.052162)
		(0.5362174 -0.5 -0.0505161)
		(0.5602683 -0.5 -0.0487619)
		(0.5841786 -0.5 -0.0469124)
		(0.6078921 -0.5 -0.0449802)
		(0.6313537 -0.5 -0.0429778)
		(0.6545085 -0.5 -0.0409174)
		(0.6773025 -0.5 -0.0388109)
		(0.6996823 -0.5 -0.03667)
		(0.7215958 -0.5 -0.0345058)
		(0.7429917 -0.5 -0.0323294)
		(0.7638202 -0.5 -0.0301515)
		(0.7840324 -0.5 -0.0279828)
		(0.8035813 -0.5 -0.0258337)
		(0.8224211 -0.5 -0.0237142)
		(0.8405079 -0.5 -0.0216347)
		(0.8577995 -0.5 -0.0196051)
		(0.8742554 -0.5 -0.0176353)
		(0.8898372 -0.5 -0.0157351)
		(0.9045085 -0.5 -0.0139143)
		(0.9182351 -0.5 -0.0121823)
		(0.9309849 -0.5 -0.0105485)
		(0.942728 -0.5 -0.0090217)
		(0.9534372 -0.5 -0.0076108)
		(0.9630873 -0.5 -0.0063238)
		(0.9716559 -0.5 -0.0051685)
		(0.9791229 -0.5 -0.0041519)
		(0.9854709 -0.5 -0.0032804)
		(0.990685 -0.5 -0.0025595)
		(0.9947532 -0.5 -0.0019938)
		(0.9976658 -0.5 -0.001587)
		(0.9994161 -0.5 -0.0013419)
	)
	arc	15 12 (2.4142137 -0.5 8.838835)
	arc	19 16 (2.4142137 -0.5 -8.838835)
);
boundary	(
	empty
	{
		type	empty;
		faces	(
			(0 1 2 5)
			(2 3 4 5)
			(5 4 8 9)
			(6 9 8 7)
			(0 9 6 1)
			(10 15 12 11)
			(12 15 14 13)
			(14 15 19 18)
			(16 17 18 19)
			(10 11 16 19)
		);
	}
	inlet
	{
		type	patch;
		faces	(
			(1 11 12 2)
			(2 12 13 3)
			(1 6 16 11)
			(6 7 17 16)
		);
	}
	outlet
	{
		type	patch;
		faces	(
			(4 3 13 14)
			(8 4 14 18)
			(7 8 18 17)
		);
	}
	upper
	{
		type	wall;
		faces	(
			(0 5 15 10)
		);
	}
	lower
	{
		type	wall;
		faces	(
			(0 10 19 9)
		);
	}
	tip
	{
		type	wall;
		faces	(
			(5 9 19 15)
		);
	}
);
