FoamFile
{
	version	2.0;
	class	dictionary;
	format	ascii;
	location	"system";
	object	fvSolution;
}
solvers
{
	Phi
	{
		solver	GAMG;
		smoother	GaussSeidel;
		tolerance	1.0E-8;
		relTol	0.01;
		maxIter	100;
	}
	p
	{
		solver	GAMG;
		smoother	GaussSeidel;
		relTol	0.01;
		cacheAgglomeration	true;
		nFinestSweeps	2;
		nPreSweeps	0;
		maxIter	100;
		nPostSweeps	1;
		agglomerator	faceAreaPair;
		nCellsInCoarsestLevel	10;
		tolerance	1.0E-7;
		mergeLevels	1;
	}
	U
	{
		solver	PBiCGStab;
		relTol	0.01;
		preconditioner	DILU;
		tolerance	1.0E-7;
		maxIter	100;
	}
	k
	{
		solver	PBiCGStab;
		relTol	0.1;
		preconditioner	DILU;
		tolerance	1.0E-6;
		maxIter	100;
	}
	omega
	{
		solver	PBiCGStab;
		relTol	0.1;
		preconditioner	DILU;
		tolerance	1.0E-6;
		maxIter	100;
	}
}
SIMPLE
{
	consistent	true;
	nNonOrthogonalCorrectors	2;
	residualControl
	{
		p	1.0E-6;
		U	1.0E-6;
		k	1.0E-5;
		omega	1.0E-5;
	}
	pRefCell	0;
	pRefValue	0.0;
}
potentialFlow
{
	nNonOrthogonalCorrectors	8;
	PhiRefCell	0;
	PhiRefValue	0.0;
}
relaxationFactors
{
	p	0.75;
	U	0.75;
	k	0.5;
	omega	0.5;
}
