/*--------------------------------*- C++ -*----------------------------------*\
| =========                 |                                                 |
| \\      /  F ield         | OpenFOAM: The Open Source CFD Toolbox           |
|  \\    /   O peration     | Version:  2206                                  |
|   \\  /    A nd           | Website:  www.openfoam.com                      |
|    \\/     M anipulation  |                                                 |
\*---------------------------------------------------------------------------*/
FoamFile
{
    version     2.0;
    format      binary;
    arch        "LSB;label=32;scalar=64";
    class       polyBoundaryMesh;
    location    "constant/polyMesh";
    object      boundary;
}
// * * * * * * * * * * * * * * * * * * * * * * * * * * * * * * * * * * * * * //

6
(
    empty
    {
        type            empty;
        inGroups        1(empty);
        nFaces          120366;
        startFace       119721;
    }
    inlet
    {
        type            patch;
        nFaces          602;
        startFace       240087;
    }
    outlet
    {
        type            patch;
        nFaces          207;
        startFace       240689;
    }
    upper
    {
        type            wall;
        inGroups        1(wall);
        nFaces          236;
        startFace       240896;
    }
    lower
    {
        type            wall;
        inGroups        1(wall);
        nFaces          236;
        startFace       241132;
    }
    tip
    {
        type            wall;
        inGroups        1(wall);
        nFaces          9;
        startFace       241368;
    }
)

// ************************************************************************* //
