FoamFile
{
	version	2.0;
	class	dictionary;
	format	ascii;
	location	"system";
	object	fvSchemes;
}
ddtSchemes
{
	default	steadyState;
}
gradSchemes
{
	default	Gauss linear;
}
divSchemes
{
	div((nuEff*dev2(T(grad(U)))))	Gauss linear;
	div(R)	Gauss linear;
	default	bounded Gauss upwind;
	div(div(phi,U))	Gauss linear;
	div(phi,U)	bounded Gauss linearUpwindV grad(U);
	div(phi,k)	bounded Gauss upwind;
	div(phi,omega)	bounded Gauss upwind;
}
laplacianSchemes
{
	default	Gauss linear corrected;
}
interpolationSchemes
{
	default	linear;
}
snGradSchemes
{
	default	corrected;
}
fluxRequired
{
	default	no;
	p	;
}
wallDist
{
	method	meshWave;
	nRequired	false;
}
