FoamFile
{
	version	2.0;
	format	binary;
	class	volScalarField;
	location	"0";
	object	k;
	arch	"LSB;label=32;scalar=64";
}
dimensions	[0 2 -2 0 0 0 0];
internalField	uniform 0.1;
boundaryField
{
	empty
	{
		type	empty;
	}
	inlet
	{
		type	turbulentIntensityKineticEnergyInlet;
		value	uniform 0.1;
		intensity	0.05;
	}
	outlet
	{
		type	zeroGradient;
	}
	upper
	{
		type	kqRWallFunction;
		value	uniform 0.1;
	}
	lower
	{
		type	kqRWallFunction;
		value	uniform 0.1;
	}
	tip
	{
		type	kqRWallFunction;
		value	uniform 0.1;
	}
}
